examples/DynaSwing/RBTS/RBTS_ACOPF_peak_L2_shunt_typical.iidm
<?xml version="1.0" encoding="UTF-8"?>
<iidm:network xmlns:iidm="http://www.powsybl.org/schema/iidm/1_4" id="RBTS_ACOPF_peak_L2_shunt_typical" caseDate="2022-02-23T14:32:19.938+01:00" forecastDistance="0" sourceFormat="MATPOWER">
    <iidm:substation id="SUB-1">
        <iidm:voltageLevel id="VL-1" nominalV="230.0" topologyKind="BUS_BREAKER">
            <iidm:busBreakerTopology>
                <iidm:bus id="BUS-1" v="241.49982041523631" angle="9.39270387132179"/>
            </iidm:busBreakerTopology>
            <iidm:generator id="GEN-1" energySource="OTHER" minP="-1.0E-10" maxP="40.0000000001" voltageRegulatorOn="true" targetP="33.45233698081685" targetV="241.49982041523631" targetQ="0.0" bus="BUS-1" connectableBus="BUS-1" p="-33.45233698081685" q="-14.640785364323186">
                <iidm:minMaxReactiveLimits minQ="-15.0000000001" maxQ="17.0000000001"/>
            </iidm:generator>
            <iidm:generator id="GEN-1#0" energySource="OTHER" minP="-1.0E-10" maxP="40.0000000001" voltageRegulatorOn="true" targetP="33.45233698081685" targetV="241.49982041523631" targetQ="0.0" bus="BUS-1" connectableBus="BUS-1" p="-33.45233698081685" q="-14.640785364323186">
                <iidm:minMaxReactiveLimits minQ="-15.0000000001" maxQ="17.0000000001"/>
            </iidm:generator>
        </iidm:voltageLevel>
    </iidm:substation>
    <iidm:substation id="SUB-2">
        <iidm:voltageLevel id="VL-2" nominalV="230.0" topologyKind="BUS_BREAKER">
            <iidm:busBreakerTopology>
                <iidm:bus id="BUS-2" v="241.49990073152043" angle="26.563103974312167"/>
            </iidm:busBreakerTopology>
            <iidm:generator id="GEN-2" energySource="OTHER" minP="-1.0E-10" maxP="5.0000000001" voltageRegulatorOn="true" targetP="4.999991025448478" targetV="241.49990073152043" targetQ="0.0" bus="BUS-2" connectableBus="BUS-2" p="-4.999991025448478" q="-1.2485539206936258">
                <iidm:minMaxReactiveLimits minQ="-1.0E-10" maxQ="5.0000000001"/>
            </iidm:generator>
            <iidm:generator id="GEN-2#0" energySource="OTHER" minP="-1.0E-10" maxP="5.0000000001" voltageRegulatorOn="true" targetP="4.999991025448478" targetV="241.49990073152043" targetQ="0.0" bus="BUS-2" connectableBus="BUS-2" p="-4.999991025448478" q="-1.2485539206936258">
                <iidm:minMaxReactiveLimits minQ="-1.0E-10" maxQ="5.0000000001"/>
            </iidm:generator>
            <iidm:generator id="GEN-2#1" energySource="OTHER" minP="-1.0E-10" maxP="40.0000000001" voltageRegulatorOn="true" targetP="39.99999102657458" targetV="241.49990073152043" targetQ="0.0" bus="BUS-2" connectableBus="BUS-2" p="-39.99999102657458" q="-1.2485539206936258">
                <iidm:minMaxReactiveLimits minQ="-15.0000000001" maxQ="17.0000000001"/>
            </iidm:generator>
            <iidm:generator id="GEN-2#2" energySource="OTHER" minP="-1.0E-10" maxP="20.0000000001" voltageRegulatorOn="true" targetP="19.999991026413703" targetV="241.49990073152043" targetQ="0.0" bus="BUS-2" connectableBus="BUS-2" p="-19.999991026413703" q="-1.2485539206936258">
                <iidm:minMaxReactiveLimits minQ="-7.0000000001" maxQ="12.0000000001"/>
            </iidm:generator>
            <iidm:generator id="GEN-2#3" energySource="OTHER" minP="-1.0E-10" maxP="20.0000000001" voltageRegulatorOn="true" targetP="19.999991026413703" targetV="241.49990073152043" targetQ="0.0" bus="BUS-2" connectableBus="BUS-2" p="-19.999991026413703" q="-1.2485539206936258">
                <iidm:minMaxReactiveLimits minQ="-7.0000000001" maxQ="12.0000000001"/>
            </iidm:generator>
            <iidm:generator id="GEN-2#4" energySource="OTHER" minP="-1.0E-10" maxP="20.0000000001" voltageRegulatorOn="true" targetP="19.999991026413703" targetV="241.49990073152043" targetQ="0.0" bus="BUS-2" connectableBus="BUS-2" p="-19.999991026413703" q="-1.2485539206936258">
                <iidm:minMaxReactiveLimits minQ="-7.0000000001" maxQ="12.0000000001"/>
            </iidm:generator>
            <iidm:generator id="GEN-2#5" energySource="OTHER" minP="-1.0E-10" maxP="20.0000000001" voltageRegulatorOn="true" targetP="19.999991026413703" targetV="241.49990073152043" targetQ="0.0" bus="BUS-2" connectableBus="BUS-2" p="-19.999991026413703" q="-1.2485539206936258">
                <iidm:minMaxReactiveLimits minQ="-7.0000000001" maxQ="12.0000000001"/>
            </iidm:generator>
            <iidm:load id="LOAD-2" loadType="UNDEFINED" p0="19.9985" q0="-1.9998500000000001" bus="BUS-2" connectableBus="BUS-2" p="19.9985" q="-1.9998500000000001"/>
        </iidm:voltageLevel>
    </iidm:substation>
    <iidm:substation id="SUB-3">
        <iidm:voltageLevel id="VL-3" nominalV="230.0" topologyKind="BUS_BREAKER">
            <iidm:busBreakerTopology>
                <iidm:bus id="BUS-3" v="229.61042048113936" angle="0.0"/>
            </iidm:busBreakerTopology>
            <iidm:load id="LOAD-3" loadType="UNDEFINED" p0="85.0075" q0="-8.500750000000002" bus="BUS-3" connectableBus="BUS-3" p="85.0075" q="-8.500750000000002"/>
        </iidm:voltageLevel>
    </iidm:substation>
    <iidm:substation id="SUB-4">
        <iidm:voltageLevel id="VL-4" nominalV="230.0" topologyKind="BUS_BREAKER">
            <iidm:busBreakerTopology>
                <iidm:bus id="BUS-4" v="225.6044592029202" angle="1.157349240839508"/>
            </iidm:busBreakerTopology>
            <iidm:load id="LOAD-4" loadType="UNDEFINED" p0="39.996999999999986" q0="-3.9997000000000007" bus="BUS-4" connectableBus="BUS-4" p="39.996999999999986" q="-3.9997000000000007"/>
        </iidm:voltageLevel>
    </iidm:substation>
    <iidm:substation id="SUB-5">
        <iidm:voltageLevel id="VL-5" nominalV="230.0" topologyKind="BUS_BREAKER">
            <iidm:busBreakerTopology>
                <iidm:bus id="BUS-5" v="226.15354870830794" angle="-2.314907086297538"/>
            </iidm:busBreakerTopology>
            <iidm:load id="LOAD-5" loadType="UNDEFINED" p0="19.998500000000007" q0="-1.9998499999999986" bus="BUS-5" connectableBus="BUS-5" p="19.998500000000007" q="-1.9998499999999986"/>
        </iidm:voltageLevel>
    </iidm:substation>
    <iidm:substation id="SUB-6">
        <iidm:voltageLevel id="VL-6" nominalV="230.0" topologyKind="BUS_BREAKER">
            <iidm:busBreakerTopology>
                <iidm:bus id="BUS-6" v="224.92017453712035" angle="-5.234029224624156"/>
            </iidm:busBreakerTopology>
            <iidm:load id="LOAD-6" loadType="UNDEFINED" p0="19.998500000000007" q0="-1.9998499999999986" bus="BUS-6" connectableBus="BUS-6" p="19.998500000000007" q="-1.9998499999999986"/>
        </iidm:voltageLevel>
    </iidm:substation>
    <iidm:line id="LINE-1-3" r="36.183600000000006" x="190.43999999999997" g1="0.0" b1="3.992438563327033E-6" g2="0.0" b2="3.992438563327033E-6" bus1="BUS-1" connectableBus1="BUS-1" voltageLevelId1="VL-1" bus2="BUS-3" connectableBus2="BUS-3" voltageLevelId2="VL-3" p1="49.344468161429916" q1="9.372592433196672" p2="-47.77660691272203" q2="-1.5640239125916597"/>
    <iidm:line id="LINE-1-3#0" r="36.183600000000006" x="190.43999999999997" g1="0.0" b1="3.992438563327033E-6" g2="0.0" b2="3.992438563327033E-6" bus1="BUS-1" connectableBus1="BUS-1" voltageLevelId1="VL-1" bus2="BUS-3" connectableBus2="BUS-3" voltageLevelId2="VL-3" p1="49.344468161429916" q1="9.372592433196672" p2="-47.77660691272203" q2="-1.5640239125916597"/>
    <iidm:line id="LINE-2-4" r="120.61200000000002" x="634.8" g1="0.0" b1="1.3308128544423441E-5" g2="0.0" b2="1.3308128544423441E-5" bus1="BUS-2" connectableBus1="BUS-2" voltageLevelId1="VL-2" bus2="BUS-4" connectableBus2="BUS-4" voltageLevelId2="VL-4" p1="38.17037677742394" q1="6.318857550641084" p2="-35.05320179160495" q2="8.63381845401653"/>
    <iidm:line id="LINE-2-4#0" r="120.61200000000002" x="634.8" g1="0.0" b1="1.3308128544423441E-5" g2="0.0" b2="1.3308128544423441E-5" bus1="BUS-2" connectableBus1="BUS-2" voltageLevelId1="VL-2" bus2="BUS-4" connectableBus2="BUS-4" voltageLevelId2="VL-4" p1="38.17037677742394" q1="6.318857550641084" p2="-35.05320179160495" q2="8.63381845401653"/>
    <iidm:line id="LINE-1-2" r="96.48960000000001" x="507.84" g1="0.0" b1="1.0646502835538753E-5" g2="0.0" b2="1.0646502835538753E-5" bus1="BUS-1" connectableBus1="BUS-1" voltageLevelId1="VL-1" bus2="BUS-2" connectableBus2="BUS-2" voltageLevelId2="VL-2" p1="-31.78361149561485" q1="10.536385862253029" p2="33.66085952227406" q2="-1.8979876564267875"/>
    <iidm:line id="LINE-3-4" r="24.122400000000003" x="126.96" g1="0.0" b1="2.6616257088846884E-6" g2="0.0" b2="2.6616257088846884E-6" bus1="BUS-3" connectableBus1="BUS-3" voltageLevelId1="VL-3" bus2="BUS-4" connectableBus2="BUS-4" voltageLevelId2="VL-4" p1="-6.610121231096107" q1="8.443719458862246" p2="6.663828066531796" q2="-8.436845080923753"/>
    <iidm:line id="LINE-3-5" r="24.122400000000003" x="126.96" g1="0.0" b1="2.6616257088846884E-6" g2="0.0" b2="2.6616257088846884E-6" bus1="BUS-3" connectableBus1="BUS-3" voltageLevelId1="VL-3" bus2="BUS-5" connectableBus2="BUS-5" voltageLevelId2="VL-5" p1="17.15247514133632" q1="3.1863281129340253" p2="-17.01279741275485" q2="-2.7276355811297717"/>
    <iidm:line id="LINE-4-5" r="24.122400000000003" x="126.96" g1="0.0" b1="2.6616257088846884E-6" g2="0.0" b2="2.6616257088846884E-6" bus1="BUS-4" connectableBus1="BUS-4" voltageLevelId1="VL-4" bus2="BUS-5" connectableBus2="BUS-5" voltageLevelId2="VL-5" p1="23.447589691317216" q1="-4.8284953076673744" p2="-23.176583069351516" q2="5.9832462107551905"/>
    <iidm:line id="LINE-5-6" r="24.122400000000003" x="126.96" g1="0.0" b1="2.6616257088846884E-6" g2="0.0" b2="2.6616257088846884E-6" bus1="BUS-5" connectableBus1="BUS-5" voltageLevelId1="VL-5" bus2="BUS-6" connectableBus2="BUS-6" voltageLevelId2="VL-6" p1="20.19090833082838" q1="-1.255519508347992" p2="-19.9980411973492" q2="1.9998304905843738"/>
</iidm:network>
